/*--------------------------------*- C++ -*----------------------------------*\
| =========                 |                                                 |
| \\      /  F ield         | OpenFOAM: The Open Source CFD Toolbox           |
|  \\    /   O peration     | Version:  v2512                                 |
|   \\  /    A nd           | Website:  www.openfoam.com                      |
|    \\/     M anipulation  |                                                 |
\*---------------------------------------------------------------------------*/
FoamFile
{
    version     2.0;
    format      ascii;
    class       dictionary;
    object      radiationProperties;
}
// * * * * * * * * * * * * * * * * * * * * * * * * * * * * * * * * * * * * * //

radiationModel  laserDTRM;

mode uniform;

nTheta 20;

nr 20;

focalLaserPosition table
(
    (  0e-6 (50e-6  20e-6 60e-6))
    (100e-6 (50e-6 130e-6 60e-6))
);

laserDirection constant (0 0 -1);

focalLaserRadius 10e-6;

laserPower 10;

reflectionModel
(
    (gas and liquid)
    {
        type    FresnelLaser;

        epsilon 0.08;
    }
    (gas and solid)
    {
        type    FresnelLaser;

        epsilon 0.08;
    }
);

alphaCut    0.8;

absorptionEmissionModel localDensityAbsorptionEmission;

localDensityAbsorptionEmissionCoeffs
{
    alphaNames (alpha.solid alpha.liquid alpha.gas);
    aCoeff (1e+8 1e+8 0);
    eCoeff (0 0 0);
    ECoeff (0 0 0);
}

scatterModel    none;

transmissionModel none;

// ************************************************************************* //