/*--------------------------------*- C++ -*----------------------------------*\
| =========                 |                                                 |
| \\      /  F ield         | OpenFOAM: The Open Source CFD Toolbox           |
|  \\    /   O peration     | Version:  v2512                                 |
|   \\  /    A nd           | Website:  www.openfoam.com                      |
|    \\/     M anipulation  |                                                 |
\*---------------------------------------------------------------------------*/
FoamFile
{
    version     2.0;
    format      ascii;
    class       dictionary;
    object      radiationProperties;
}
// * * * * * * * * * * * * * * * * * * * * * * * * * * * * * * * * * * * * * //

radiationModel  laserDTRM;

mode Gaussian;

sigma 15e-6;

nTheta 30;

nr 20;

focalLaserPosition table
(
    (  0e-6 ( 100e-6 300e-6 100e-6))
    (800e-6 (1100e-6 300e-6 100e-6))
);

laserDirection constant (0 0 -1);

focalLaserRadius 45e-6;

laserPower 250;

reflectionModel
(
    (gas to liquid)
    {
        type    FresnelLaser;

        epsilon 0.67;
    }
    (gas to solid)
    {
        type    FresnelLaser;

        epsilon 0.67;
    }
);

absorptionEmissionModel localDensityAbsorptionEmission;

localDensityAbsorptionEmissionCoeffs
{
    alphaNames (alpha.solid alpha.liquid alpha.gas);
    aCoeff (1e+8 1e+8 0);
    eCoeff (0 0 0);
    ECoeff (0 0 0);
}

scatterModel    none;

// ************************************************************************* //